357329
  -OEChem-10112210013D

 88 94  0     1  0  0  0  0  0999 V2000
   -2.5333    0.9012   -1.1966 O   0  0  0  0  0  0  0  0  0  0  0  0
    2.5331   -0.9016   -1.1963 O   0  0  0  0  0  0  0  0  0  0  0  0
   -3.2913    3.0908    0.3967 O   0  0  0  0  0  0  0  0  0  0  0  0
    3.2914   -3.0908    0.3975 O   0  0  0  0  0  0  0  0  0  0  0  0
   -5.2419    2.7958    2.2900 O   0  0  0  0  0  0  0  0  0  0  0  0
    5.2434   -2.7962    2.2885 O   0  0  0  0  0  0  0  0  0  0  0  0
   -5.1643   -2.3498   -1.3424 N   0  0  2  0  0  0  0  0  0  0  0  0
    5.1639    2.3497   -1.3426 N   0  0  2  0  0  0  0  0  0  0  0  0
   -3.8890   -1.6631   -1.0158 C   0  0  1  0  0  0  0  0  0  0  0  0
    3.8886    1.6632   -1.0159 C   0  0  1  0  0  0  0  0  0  0  0  0
   -4.1986   -0.4531   -0.1285 C   0  0  0  0  0  0  0  0  0  0  0  0
    4.1982    0.4533   -0.1283 C   0  0  0  0  0  0  0  0  0  0  0  0
   -5.8073   -2.8847   -0.1408 C   0  0  0  0  0  0  0  0  0  0  0  0
    5.8070    2.8849   -0.1412 C   0  0  0  0  0  0  0  0  0  0  0  0
   -5.2638   -0.5492    0.7941 C   0  0  0  0  0  0  0  0  0  0  0  0
    5.2637    0.5493    0.7939 C   0  0  0  0  0  0  0  0  0  0  0  0
   -6.1599   -1.7647    0.8440 C   0  0  0  0  0  0  0  0  0  0  0  0
    6.1592    1.7653    0.8441 C   0  0  0  0  0  0  0  0  0  0  0  0
   -2.8359   -2.6019   -0.3476 C   0  0  0  0  0  0  0  0  0  0  0  0
    2.8356    2.6021   -0.3480 C   0  0  0  0  0  0  0  0  0  0  0  0
   -3.4920    0.7642   -0.2183 C   0  0  0  0  0  0  0  0  0  0  0  0
    3.4915   -0.7641   -0.2178 C   0  0  0  0  0  0  0  0  0  0  0  0
   -1.3938   -2.1958   -0.5365 C   0  0  0  0  0  0  0  0  0  0  0  0
    1.3935    2.1958   -0.5368 C   0  0  0  0  0  0  0  0  0  0  0  0
   -5.0340   -3.3638   -2.3834 C   0  0  0  0  0  0  0  0  0  0  0  0
    5.0333    3.3638   -2.3837 C   0  0  0  0  0  0  0  0  0  0  0  0
   -5.5788    0.5405    1.6210 C   0  0  0  0  0  0  0  0  0  0  0  0
    5.5795   -0.5405    1.6201 C   0  0  0  0  0  0  0  0  0  0  0  0
   -3.8618    1.8622    0.5715 C   0  0  0  0  0  0  0  0  0  0  0  0
    3.8617   -1.8620    0.5719 C   0  0  0  0  0  0  0  0  0  0  0  0
   -4.8826    1.7396    1.5082 C   0  0  0  0  0  0  0  0  0  0  0  0
    4.8835   -1.7397    1.5075 C   0  0  0  0  0  0  0  0  0  0  0  0
   -0.5891   -1.8971    0.5688 C   0  0  0  0  0  0  0  0  0  0  0  0
    0.8269    2.1443   -1.8166 C   0  0  0  0  0  0  0  0  0  0  0  0
   -0.8266   -2.1460   -1.8161 C   0  0  0  0  0  0  0  0  0  0  0  0
    0.5881    1.8990    0.5686 C   0  0  0  0  0  0  0  0  0  0  0  0
   -1.2866    1.4039   -0.8858 C   0  0  0  0  0  0  0  0  0  0  0  0
    1.2864   -1.4039   -0.8855 C   0  0  0  0  0  0  0  0  0  0  0  0
   -0.5003    1.7467   -1.9896 C   0  0  0  0  0  0  0  0  0  0  0  0
    0.7395   -1.4947    0.3973 C   0  0  0  0  0  0  0  0  0  0  0  0
   -0.7403    1.4964    0.3970 C   0  0  0  0  0  0  0  0  0  0  0  0
    0.5005   -1.7486   -1.9891 C   0  0  0  0  0  0  0  0  0  0  0  0
   -3.9262    3.9708   -0.5263 C   0  0  0  0  0  0  0  0  0  0  0  0
    3.9261   -3.9707   -0.5257 C   0  0  0  0  0  0  0  0  0  0  0  0
   -4.5660    2.9380    3.5378 C   0  0  0  0  0  0  0  0  0  0  0  0
    4.5688   -2.9388    3.5370 C   0  0  0  0  0  0  0  0  0  0  0  0
   -3.5017   -1.2775   -1.9670 H   0  0  0  0  0  0  0  0  0  0  0  0
    3.5015    1.2772   -1.9670 H   0  0  0  0  0  0  0  0  0  0  0  0
   -5.1728   -3.6302    0.3542 H   0  0  0  0  0  0  0  0  0  0  0  0
   -6.7358   -3.4092   -0.4014 H   0  0  0  0  0  0  0  0  0  0  0  0
    5.1727    3.6307    0.3536 H   0  0  0  0  0  0  0  0  0  0  0  0
    6.7356    3.4091   -0.4019 H   0  0  0  0  0  0  0  0  0  0  0  0
   -6.1673   -2.1702    1.8629 H   0  0  0  0  0  0  0  0  0  0  0  0
   -7.1791   -1.4240    0.6167 H   0  0  0  0  0  0  0  0  0  0  0  0
    6.1656    2.1710    1.8628 H   0  0  0  0  0  0  0  0  0  0  0  0
    7.1787    1.4250    0.6177 H   0  0  0  0  0  0  0  0  0  0  0  0
   -2.9008   -3.6176   -0.7550 H   0  0  0  0  0  0  0  0  0  0  0  0
   -3.0485   -2.7051    0.7250 H   0  0  0  0  0  0  0  0  0  0  0  0
    2.9003    3.6177   -0.7557 H   0  0  0  0  0  0  0  0  0  0  0  0
    3.0481    2.7054    0.7246 H   0  0  0  0  0  0  0  0  0  0  0  0
   -4.4849   -4.2517   -2.0557 H   0  0  0  0  0  0  0  0  0  0  0  0
   -4.5344   -2.9530   -3.2676 H   0  0  0  0  0  0  0  0  0  0  0  0
   -6.0266   -3.6913   -2.7129 H   0  0  0  0  0  0  0  0  0  0  0  0
    4.4843    4.2518   -2.0559 H   0  0  0  0  0  0  0  0  0  0  0  0
    4.5334    2.9531   -3.2678 H   0  0  0  0  0  0  0  0  0  0  0  0
    6.0258    3.6912   -2.7134 H   0  0  0  0  0  0  0  0  0  0  0  0
   -6.4029    0.4625    2.3270 H   0  0  0  0  0  0  0  0  0  0  0  0
    6.4041   -0.4625    2.3257 H   0  0  0  0  0  0  0  0  0  0  0  0
   -0.9988   -1.9394    1.5750 H   0  0  0  0  0  0  0  0  0  0  0  0
    1.4213    2.3955   -2.6915 H   0  0  0  0  0  0  0  0  0  0  0  0
   -1.4207   -2.3984   -2.6908 H   0  0  0  0  0  0  0  0  0  0  0  0
    0.9975    1.9427    1.5750 H   0  0  0  0  0  0  0  0  0  0  0  0
   -0.9070    1.6785   -2.9956 H   0  0  0  0  0  0  0  0  0  0  0  0
    1.2992   -1.2093    1.2829 H   0  0  0  0  0  0  0  0  0  0  0  0
   -1.3002    1.2123    1.2829 H   0  0  0  0  0  0  0  0  0  0  0  0
    0.9076   -1.6818   -2.9950 H   0  0  0  0  0  0  0  0  0  0  0  0
   -4.9328    4.2303   -0.1840 H   0  0  0  0  0  0  0  0  0  0  0  0
   -3.9739    3.5185   -1.5221 H   0  0  0  0  0  0  0  0  0  0  0  0
   -3.3327    4.8871   -0.5885 H   0  0  0  0  0  0  0  0  0  0  0  0
    3.9736   -3.5184   -1.5214 H   0  0  0  0  0  0  0  0  0  0  0  0
    3.3324   -4.8868   -0.5879 H   0  0  0  0  0  0  0  0  0  0  0  0
    4.9327   -4.2303   -0.1835 H   0  0  0  0  0  0  0  0  0  0  0  0
   -3.4908    3.0704    3.3803 H   0  0  0  0  0  0  0  0  0  0  0  0
   -4.7482    2.0656    4.1735 H   0  0  0  0  0  0  0  0  0  0  0  0
   -4.9579    3.8261    4.0409 H   0  0  0  0  0  0  0  0  0  0  0  0
    3.4934   -3.0710    3.3805 H   0  0  0  0  0  0  0  0  0  0  0  0
    4.7517   -2.0667    4.1728 H   0  0  0  0  0  0  0  0  0  0  0  0
    4.9612   -3.8272    4.0392 H   0  0  0  0  0  0  0  0  0  0  0  0
  1 21  1  0  0  0  0
  1 37  1  0  0  0  0
  2 22  1  0  0  0  0
  2 38  1  0  0  0  0
  3 29  1  0  0  0  0
  3 43  1  0  0  0  0
  4 30  1  0  0  0  0
  4 44  1  0  0  0  0
  5 31  1  0  0  0  0
  5 45  1  0  0  0  0
  6 32  1  0  0  0  0
  6 46  1  0  0  0  0
  7  9  1  0  0  0  0
  7 13  1  0  0  0  0
  7 25  1  0  0  0  0
  8 10  1  0  0  0  0
  8 14  1  0  0  0  0
  8 26  1  0  0  0  0
  9 11  1  0  0  0  0
  9 19  1  0  0  0  0
  9 47  1  0  0  0  0
 10 12  1  0  0  0  0
 10 20  1  0  0  0  0
 10 48  1  0  0  0  0
 11 15  1  0  0  0  0
 11 21  2  0  0  0  0
 12 16  1  0  0  0  0
 12 22  2  0  0  0  0
 13 17  1  0  0  0  0
 13 49  1  0  0  0  0
 13 50  1  0  0  0  0
 14 18  1  0  0  0  0
 14 51  1  0  0  0  0
 14 52  1  0  0  0  0
 15 17  1  0  0  0  0
 15 27  2  0  0  0  0
 16 18  1  0  0  0  0
 16 28  2  0  0  0  0
 17 53  1  0  0  0  0
 17 54  1  0  0  0  0
 18 55  1  0  0  0  0
 18 56  1  0  0  0  0
 19 23  1  0  0  0  0
 19 57  1  0  0  0  0
 19 58  1  0  0  0  0
 20 24  1  0  0  0  0
 20 59  1  0  0  0  0
 20 60  1  0  0  0  0
 21 29  1  0  0  0  0
 22 30  1  0  0  0  0
 23 33  2  0  0  0  0
 23 35  1  0  0  0  0
 24 34  2  0  0  0  0
 24 36  1  0  0  0  0
 25 61  1  0  0  0  0
 25 62  1  0  0  0  0
 25 63  1  0  0  0  0
 26 64  1  0  0  0  0
 26 65  1  0  0  0  0
 26 66  1  0  0  0  0
 27 31  1  0  0  0  0
 27 67  1  0  0  0  0
 28 32  1  0  0  0  0
 28 68  1  0  0  0  0
 29 31  2  0  0  0  0
 30 32  2  0  0  0  0
 33 40  1  0  0  0  0
 33 69  1  0  0  0  0
 34 39  1  0  0  0  0
 34 70  1  0  0  0  0
 35 42  2  0  0  0  0
 35 71  1  0  0  0  0
 36 41  2  0  0  0  0
 36 72  1  0  0  0  0
 37 39  2  0  0  0  0
 37 41  1  0  0  0  0
 38 40  2  0  0  0  0
 38 42  1  0  0  0  0
 39 73  1  0  0  0  0
 40 74  1  0  0  0  0
 41 75  1  0  0  0  0
 42 76  1  0  0  0  0
 43 77  1  0  0  0  0
 43 78  1  0  0  0  0
 43 79  1  0  0  0  0
 44 80  1  0  0  0  0
 44 81  1  0  0  0  0
 44 82  1  0  0  0  0
 45 83  1  0  0  0  0
 45 84  1  0  0  0  0
 45 85  1  0  0  0  0
 46 86  1  0  0  0  0
 46 87  1  0  0  0  0
 46 88  1  0  0  0  0
M  END
> <PUBCHEM_COMPOUND_CID>
357329

> <PUBCHEM_CONFORMER_RMSD>
1

> <PUBCHEM_CONFORMER_DIVERSEORDER>
1
13
19
15
5
2
20
14
3
21
17
9
11
7
16
23
10
4
12
22
8
18
6

> <PUBCHEM_MMFF94_PARTIAL_CHARGES>
56
1 -0.17
10 0.41
11 -0.14
12 -0.14
13 0.27
14 0.27
15 -0.14
16 -0.14
17 0.14
18 0.14
19 0.14
2 -0.17
20 0.14
21 0.08
22 0.08
23 -0.14
24 -0.14
25 0.27
26 0.27
27 -0.15
28 -0.15
29 0.08
3 -0.36
30 0.08
31 0.08
32 0.08
33 -0.15
34 -0.15
35 -0.15
36 -0.15
37 0.08
38 0.08
39 -0.15
4 -0.36
40 -0.15
41 -0.15
42 -0.15
43 0.28
44 0.28
45 0.28
46 0.28
5 -0.36
6 -0.36
67 0.15
68 0.15
69 0.15
7 -0.81
70 0.15
71 0.15
72 0.15
73 0.15
74 0.15
75 0.15
76 0.15
8 -0.81
9 0.41

> <PUBCHEM_EFFECTIVE_ROTOR_COUNT>
6

> <PUBCHEM_PHARMACOPHORE_FEATURES>
14
1 1 acceptor
1 2 acceptor
1 3 acceptor
1 4 acceptor
1 5 acceptor
1 6 acceptor
1 7 cation
1 8 cation
6 11 15 21 27 29 31 rings
6 12 16 22 28 30 32 rings
6 23 33 35 38 40 42 rings
6 24 34 36 37 39 41 rings
6 7 9 11 13 15 17 rings
6 8 10 12 14 16 18 rings

> <PUBCHEM_HEAVY_ATOM_COUNT>
46

> <PUBCHEM_ATOM_DEF_STEREO_COUNT>
0

> <PUBCHEM_ATOM_UDEF_STEREO_COUNT>
2

> <PUBCHEM_BOND_DEF_STEREO_COUNT>
0

> <PUBCHEM_BOND_UDEF_STEREO_COUNT>
0

> <PUBCHEM_ISOTOPIC_ATOM_COUNT>
0

> <PUBCHEM_COMPONENT_COUNT>
1

> <PUBCHEM_CACTVS_TAUTO_COUNT>
1

> <PUBCHEM_CONFORMER_ID>
000573D100000001

> <PUBCHEM_MMFF94_ENERGY>
209.9622

> <PUBCHEM_FEATURE_SELFOVERLAP>
71.114

> <PUBCHEM_SHAPE_FINGERPRINT>
10439779 11 18131357388540647561
11513181 2 18202009827950567038
12106331 60 17987245615264225607
12422481 6 18266740186152960020
13111901 25 18409728478628149584
13560911 43 18198909296039639011
13782708 43 16588297255439641410
14068700 675 17985828375025396365
14394314 77 18340495577444657793
14395042 24 18270410494872285667
14784336 7 17837481222238694159
15250474 111 18338795722927959652
15361156 5 17604158004267712196
15406563 185 17843697796684373300
15484559 13 16820199435935441468
15968369 153 17627791138621540748
16112460 7 18410862061503536602
19319366 153 18043242647355697886
23559900 14 17701552709785303702
3680242 22 18334860468081119976
392239 28 18261955133161034651
4058900 60 17751651077142594246
4144715 1 18410304618047173179
50009960 94 16662582430487319616
57527293 21 18336542716418569410
86090 222 15864641535709366314

> <PUBCHEM_SHAPE_MULTIPOLES>
901.48
16.2
5.26
2.49
0
0
-1.37
0
-6.11
0
0.09
0
0
-6.51

> <PUBCHEM_SHAPE_SELFOVERLAP>
1981.546

> <PUBCHEM_SHAPE_VOLUME>
488.1

> <PUBCHEM_COORDINATE_TYPE>
2
5
10

$$$$
