73073
  -OEChem-10112209223D

 46 50  0     1  0  0  0  0  0999 V2000
   -4.7231    1.1199   -0.8621 O   0  0  0  0  0  0  0  0  0  0  0  0
   -2.5130   -2.5320    0.9691 O   0  0  0  0  0  0  0  0  0  0  0  0
   -3.9338   -2.9674   -0.8062 O   0  0  0  0  0  0  0  0  0  0  0  0
    0.0726    1.9155    0.0863 N   0  0  0  0  0  0  0  0  0  0  0  0
    2.1149   -1.1879   -0.2437 N   0  0  0  0  0  0  0  0  0  0  0  0
   -2.3382    1.5132   -0.3710 C   0  0  2  0  0  0  0  0  0  0  0  0
   -2.1664    0.0933    0.2008 C   0  0  2  0  0  0  0  0  0  0  0  0
   -1.2935    2.4384    0.2512 C   0  0  0  0  0  0  0  0  0  0  0  0
   -0.8060   -0.4421   -0.2760 C   0  0  0  0  0  0  0  0  0  0  0  0
   -3.7890    2.0123   -0.2216 C   0  0  2  0  0  0  0  0  0  0  0  0
    0.3400    0.5267   -0.0809 C   0  0  0  0  0  0  0  0  0  0  0  0
   -3.3391   -0.7502   -0.2162 C   0  0  0  0  0  0  0  0  0  0  0  0
    1.6157    0.0827   -0.0897 C   0  0  0  0  0  0  0  0  0  0  0  0
   -4.2582    2.2658    1.2117 C   0  0  0  0  0  0  0  0  0  0  0  0
   -4.4631   -0.2188   -0.7147 C   0  0  0  0  0  0  0  0  0  0  0  0
    1.1555    2.8026    0.2418 C   0  0  0  0  0  0  0  0  0  0  0  0
    2.7108    1.0309    0.0665 C   0  0  0  0  0  0  0  0  0  0  0  0
    2.4509    2.4390    0.2370 C   0  0  0  0  0  0  0  0  0  0  0  0
   -3.3156   -2.2077   -0.0764 C   0  0  0  0  0  0  0  0  0  0  0  0
    3.8665    0.3693    0.0174 C   0  0  0  0  0  0  0  0  0  0  0  0
    3.4034   -1.0243   -0.1803 C   0  0  0  0  0  0  0  0  0  0  0  0
    5.2532    0.6951    0.1018 C   0  0  0  0  0  0  0  0  0  0  0  0
    4.4535   -2.0618   -0.2838 C   0  0  0  0  0  0  0  0  0  0  0  0
    6.1498   -0.2992   -0.0010 C   0  0  0  0  0  0  0  0  0  0  0  0
    5.7388   -1.6807   -0.1941 C   0  0  0  0  0  0  0  0  0  0  0  0
   -2.3867   -3.9328    1.2343 C   0  0  0  0  0  0  0  0  0  0  0  0
   -2.1414    1.4627   -1.4544 H   0  0  0  0  0  0  0  0  0  0  0  0
   -2.1563    0.1407    1.2991 H   0  0  0  0  0  0  0  0  0  0  0  0
   -1.3746    3.4287   -0.2148 H   0  0  0  0  0  0  0  0  0  0  0  0
   -1.4771    2.5672    1.3244 H   0  0  0  0  0  0  0  0  0  0  0  0
   -0.8654   -0.6805   -1.3473 H   0  0  0  0  0  0  0  0  0  0  0  0
   -0.5651   -1.3768    0.2410 H   0  0  0  0  0  0  0  0  0  0  0  0
   -3.8755    2.9634   -0.7617 H   0  0  0  0  0  0  0  0  0  0  0  0
   -4.1980    1.3628    1.8271 H   0  0  0  0  0  0  0  0  0  0  0  0
   -3.6765    3.0560    1.6940 H   0  0  0  0  0  0  0  0  0  0  0  0
   -5.3106    2.5712    1.2136 H   0  0  0  0  0  0  0  0  0  0  0  0
   -5.3170   -0.7884   -1.0578 H   0  0  0  0  0  0  0  0  0  0  0  0
    0.8624    3.8376    0.3794 H   0  0  0  0  0  0  0  0  0  0  0  0
    3.2551    3.1520    0.3625 H   0  0  0  0  0  0  0  0  0  0  0  0
    5.5639    1.7228    0.2452 H   0  0  0  0  0  0  0  0  0  0  0  0
    4.1625   -3.0945   -0.4281 H   0  0  0  0  0  0  0  0  0  0  0  0
    7.2134   -0.0943    0.0577 H   0  0  0  0  0  0  0  0  0  0  0  0
    6.5295   -2.4209   -0.2667 H   0  0  0  0  0  0  0  0  0  0  0  0
   -1.7212   -4.0573    2.0926 H   0  0  0  0  0  0  0  0  0  0  0  0
   -1.9470   -4.4428    0.3719 H   0  0  0  0  0  0  0  0  0  0  0  0
   -3.3629   -4.3612    1.4809 H   0  0  0  0  0  0  0  0  0  0  0  0
  1 10  1  0  0  0  0
  1 15  1  0  0  0  0
  2 19  1  0  0  0  0
  2 26  1  0  0  0  0
  3 19  2  0  0  0  0
  4  8  1  0  0  0  0
  4 11  1  0  0  0  0
  4 16  1  0  0  0  0
  5 13  1  0  0  0  0
  5 21  2  0  0  0  0
  6  7  1  0  0  0  0
  6  8  1  0  0  0  0
  6 10  1  0  0  0  0
  6 27  1  0  0  0  0
  7  9  1  0  0  0  0
  7 12  1  0  0  0  0
  7 28  1  0  0  0  0
  8 29  1  0  0  0  0
  8 30  1  0  0  0  0
  9 11  1  0  0  0  0
  9 31  1  0  0  0  0
  9 32  1  0  0  0  0
 10 14  1  0  0  0  0
 10 33  1  0  0  0  0
 11 13  2  0  0  0  0
 12 15  2  0  0  0  0
 12 19  1  0  0  0  0
 13 17  1  0  0  0  0
 14 34  1  0  0  0  0
 14 35  1  0  0  0  0
 14 36  1  0  0  0  0
 15 37  1  0  0  0  0
 16 18  2  0  0  0  0
 16 38  1  0  0  0  0
 17 18  1  0  0  0  0
 17 20  2  0  0  0  0
 18 39  1  0  0  0  0
 20 21  1  0  0  0  0
 20 22  1  0  0  0  0
 21 23  1  0  0  0  0
 22 24  2  0  0  0  0
 22 40  1  0  0  0  0
 23 25  2  0  0  0  0
 23 41  1  0  0  0  0
 24 25  1  0  0  0  0
 24 42  1  0  0  0  0
 25 43  1  0  0  0  0
 26 44  1  0  0  0  0
 26 45  1  0  0  0  0
 26 46  1  0  0  0  0
M  END
> <PUBCHEM_COMPOUND_CID>
73073

> <PUBCHEM_CONFORMER_RMSD>
0.6

> <PUBCHEM_CONFORMER_DIVERSEORDER>
1
2

> <PUBCHEM_MMFF94_PARTIAL_CHARGES>
30
1 -0.36
10 0.28
11 -0.04
12 -0.12
13 0.17
15 -0.07
16 -0.05
18 -0.15
19 0.71
2 -0.43
20 0.01
21 0.42
22 -0.15
23 -0.14
24 -0.15
25 -0.15
26 0.28
3 -0.57
37 0.15
38 0.15
39 0.15
4 -0.57
40 0.15
41 0.15
42 0.15
43 0.15
5 -0.62
7 0.14
8 0.37
9 0.14

> <PUBCHEM_EFFECTIVE_ROTOR_COUNT>
2.8

> <PUBCHEM_PHARMACOPHORE_FEATURES>
9
1 1 acceptor
1 3 acceptor
1 4 cation
1 5 acceptor
5 5 13 17 20 21 rings
6 1 6 7 10 12 15 rings
6 20 21 22 23 24 25 rings
6 4 11 13 16 17 18 rings
6 4 6 7 8 9 11 rings

> <PUBCHEM_HEAVY_ATOM_COUNT>
26

> <PUBCHEM_ATOM_DEF_STEREO_COUNT>
3

> <PUBCHEM_ATOM_UDEF_STEREO_COUNT>
0

> <PUBCHEM_BOND_DEF_STEREO_COUNT>
0

> <PUBCHEM_BOND_UDEF_STEREO_COUNT>
0

> <PUBCHEM_ISOTOPIC_ATOM_COUNT>
0

> <PUBCHEM_COMPONENT_COUNT>
1

> <PUBCHEM_CACTVS_TAUTO_COUNT>
1

> <PUBCHEM_CONFORMER_ID>
00011D7100000001

> <PUBCHEM_MMFF94_ENERGY>
80.4383

> <PUBCHEM_FEATURE_SELFOVERLAP>
45.941

> <PUBCHEM_SHAPE_FINGERPRINT>
10616163 171 18413389860390192407
10693767 8 17696732726315509287
10906281 52 18129115436775533796
1100329 8 18411705348389102593
11135609 12 17970075632762397553
11227688 84 17475236176727674671
11405975 8 18413673521368087224
11578080 2 17202465879250067833
12555020 224 18338224991153363093
12633257 1 18340211795320916057
13140716 1 18342461456146247913
13402501 40 18412262822137733231
14341114 176 18411985754087430012
14461889 52 18271795853441892570
14790565 3 17907584618615082609
14866123 147 18410862071027615603
15196674 1 18412824681696923372
15250474 111 18262509296086719682
15352361 1 18411980278051438022
17492 89 18267301126299544463
17627616 140 17970903354412468643
17844677 252 18341899636058953340
1813 80 17530969059998705300
19141452 34 18340209591897484001
19958102 18 18187919517673349302
200 152 17917705781909075940
20775438 99 16618375757907612007
21033648 29 17346018018577711370
21065198 57 18412261761444217736
21133410 171 17402271348221967074
21236236 1 18412263934681832287
21267235 1 18411986862304985021
221490 88 18265617756938531664
22393880 68 18187632618062856644
23402539 116 18342170021298360572
23466295 7 18042698367509172019
23559900 14 18340195371192169336
3004659 81 18261111825734633270
3178227 256 18265350421717450729
335352 9 18411980222417797853
3383291 50 18409164437811869683
3633792 109 18337942391180596757
4015057 19 18271512191657427761
4073 2 18335422391943747258
4214541 1 18411698777036041181
4616759 239 18059845144122702562
5104073 3 18342735213535836888
5486654 36 18334586758289314035
59755656 215 18267307534965821862
9709674 26 18265331883799245835

> <PUBCHEM_SHAPE_MULTIPOLES>
507.5
12.34
3.77
0.84
10.11
1.98
-0.12
3.3
0.89
-3.4
-0.97
-0.73
0.21
0.35

> <PUBCHEM_SHAPE_SELFOVERLAP>
1133.88

> <PUBCHEM_SHAPE_VOLUME>
264.7

> <PUBCHEM_COORDINATE_TYPE>
2
5
10

$$$$
